[General]
network = CloudSystem

num-rngs = 4

sim-time-limit = 100000s
warmup-period = 0s

seed-set = ${repetition}

**sink**.result-recording-modes = +vector, +vector(timeavg) #+vector(mean),+vector(timeavg)

[Config constantValuesTest1]
*.*_type = 0

*.T = 1s

*.N = 10
*.I = 1000
*.R = 1000
*.fairSharing = ${true, false}

*.S = 1s

*.p = 0.5

[Config constantValuesTest2]
*.*_type = 0
*.T = 1s

*.N = 10
*.I = 1000
*.R = 900
*.fairSharing = ${true, false}

*.S = 3s

*.p = 0.5

[Config constantValues1]
repeat = 1

*.*_type = 0

*.T = 1.7s

*.N = 7
*.I = 1900
*.R = 1500
*.fairSharing = ${false, true}

*.S = 1s

*.p = 0.5

[Config exponentialDistribution1]
repeat = 50

*.*_type = 1

*.T = 1.7s

*.N = 7
*.I = 1900
*.R = 1500
*.fairSharing = ${false, true}

*.S = 1s

*.p = 0.5



